3ho9_ligand
                    3D
 Schrodinger Suite 2020-3.
 58 61  0  0  1  0            999 V2000
   -0.2040   72.3120   68.1690 C   0  0  1  0  0  0
   -3.2700   68.6950   72.0700 O   0  0  0  0  0  0
   -5.7480   67.6470   68.7260 O   0  0  0  0  0  0
   -5.3830   69.0320   66.9890 N   0  0  0  0  0  0
   -5.2450   68.6100   68.2340 C   0  0  0  0  0  0
   -4.3050   69.5090   69.1730 C   0  0  0  0  0  0
   -2.9340   68.7460   69.2490 C   0  0  0  0  0  0
   -1.9240   69.4490   70.2530 C   0  0  2  0  0  0
   -2.4540   69.4790   71.7010 C   0  0  0  0  0  0
   -1.9090   70.5420   72.6470 C   0  0  0  0  0  0
   -1.1230   71.5710   72.1480 C   0  0  0  0  0  0
   -0.7200   71.8110   70.6690 C   0  0  1  0  0  0
   -1.6330   70.9090   69.7280 C   0  0  1  0  0  0
   -1.0070   70.9560   68.3000 C   0  0  0  0  0  0
   -1.1040   73.3250   70.3690 C   0  0  0  0  0  0
   -1.0280   73.3880   68.8660 C   0  0  0  0  0  0
   -1.7060   74.3230   68.2100 C   0  0  0  0  0  0
   -0.6870   68.5050   70.3050 C   0  0  0  0  0  0
    0.7890   71.5470   70.3840 C   0  0  1  0  0  0
    1.1410   72.0970   68.9750 C   0  0  0  0  0  0
   -7.6060   70.1770   65.8680 O   0  0  0  0  0  0
   -4.6410   66.4800   66.1570 O   0  0  0  0  0  0
   -5.1060   64.5580   64.5560 O   0  0  0  0  0  0
   -6.8420   64.4740   63.2690 O   0  5  0  0  0  0
   -6.1530   65.0600   64.1210 C   0  0  0  0  0  0
   -6.5670   66.3650   64.5610 C   0  0  0  0  0  0
   -5.7750   67.0590   65.5880 C   0  0  0  0  0  0
   -6.2040   68.3080   65.9740 C   0  0  0  0  0  0
   -7.3300   68.9340   65.4390 C   0  0  0  0  0  0
   -8.1450   68.2710   64.4510 C   0  0  0  0  0  0
   -7.7100   66.9970   64.0600 C   0  0  0  0  0  0
    1.5080   72.2240   71.4400 O   0  0  0  0  0  0
   -0.0247   72.6267   67.1303 H   0  0  0  0  0  0
   -4.8808   69.9545   66.6621 H   0  0  0  0  0  0
   -4.1852   70.5063   68.7246 H   0  0  0  0  0  0
   -4.7658   69.6068   70.1670 H   0  0  0  0  0  0
   -3.1061   67.7165   69.5961 H   0  0  0  0  0  0
   -2.4708   68.7240   68.2515 H   0  0  0  0  0  0
   -2.1367   70.4956   73.7222 H   0  0  0  0  0  0
   -0.7125   72.3300   72.8302 H   0  0  0  0  0  0
   -2.6506   71.3256   69.6970 H   0  0  0  0  0  0
   -1.7972   70.9225   67.5355 H   0  0  0  0  0  0
   -0.3211   70.1082   68.1558 H   0  0  0  0  0  0
   -2.1135   73.5306   70.7547 H   0  0  0  0  0  0
   -0.3806   73.9913   70.8616 H   0  0  0  0  0  0
   -1.6532   74.3725   67.1124 H   0  0  0  0  0  0
   -2.3203   75.0478   68.7643 H   0  0  0  0  0  0
   -0.9943   67.5184   70.6821 H   0  0  0  0  0  0
    0.0731   68.9332   70.9750 H   0  0  0  0  0  0
   -0.2659   68.3965   69.2946 H   0  0  0  0  0  0
    1.0987   70.4926   70.4321 H   0  0  0  0  0  0
    1.7782   71.3776   68.4398 H   0  0  0  0  0  0
    1.6701   73.0569   69.0682 H   0  0  0  0  0  0
   -6.9635   70.6536   66.6230 H   0  0  0  0  0  0
   -4.3136   65.4803   65.8353 H   0  0  0  0  0  0
   -9.0284   68.7282   64.0297 H   0  0  0  0  0  0
   -8.3088   66.4866   63.3237 H   0  0  0  0  0  0
    1.3506   71.9305   72.4884 H   0  0  0  0  0  0
  1 14  1  0  0  0
  1 16  1  0  0  0
  1 20  1  0  0  0
  1 33  1  0  0  0
  2  9  2  0  0  0
  3  5  2  0  0  0
  4  5  1  0  0  0
  4 28  1  0  0  0
  4 34  1  0  0  0
  5  6  1  0  0  0
  6  7  1  0  0  0
  6 35  1  0  0  0
  6 36  1  0  0  0
  7  8  1  0  0  0
  7 37  1  0  0  0
  7 38  1  0  0  0
  8  9  1  0  0  0
  8 13  1  0  0  0
  8 18  1  0  0  0
  9 10  1  0  0  0
 10 11  2  0  0  0
 10 39  1  0  0  0
 11 12  1  0  0  0
 11 40  1  0  0  0
 12 13  1  0  0  0
 12 15  1  0  0  0
 12 19  1  0  0  0
 13 14  1  0  0  0
 13 41  1  0  0  0
 14 42  1  0  0  0
 14 43  1  0  0  0
 15 16  1  0  0  0
 15 44  1  0  0  0
 15 45  1  0  0  0
 16 17  2  0  0  0
 17 46  1  0  0  0
 17 47  1  0  0  0
 18 48  1  0  0  0
 18 49  1  0  0  0
 18 50  1  0  0  0
 19 20  1  0  0  0
 19 32  1  0  0  0
 19 51  1  0  0  0
 20 52  1  0  0  0
 20 53  1  0  0  0
 21 29  1  0  0  0
 21 54  1  0  0  0
 22 27  1  0  0  0
 22 55  1  0  0  0
 23 25  2  0  0  0
 24 25  1  0  0  0
 25 26  1  0  0  0
 26 27  2  0  0  0
 26 31  1  0  0  0
 27 28  1  0  0  0
 28 29  2  0  0  0
 29 30  1  0  0  0
 30 31  2  0  0  0
 30 56  1  0  0  0
 31 57  1  0  0  0
 32 58  1  0  0  0
M  CHG  1  24  -1
M  END
> <i_m_stars>
0

> <s_m_entry_id>
123

> <s_m_entry_name>
Structure123

> <s_m_Source_Path>
/disk1/aquila/PDBbind2020/fail/3ho9

> <s_m_Source_File>
3ho9_protein.pdb

> <i_m_Source_File_Index>
1

> <s_pdb_PDB_TITLE>
3ho9_protein

> <i_pdb_PDB_Model>
1

> <s_pdb_PDB_format_version>
3.0

> <s_ppw_entry_id_backup>
121

> <b_ppw_prepared>
1

> <s_ppw_prepared_with_version>
2020-2

> <b_ppw_assigned_bond_orders>
1

> <b_ppw_added_hydrogens>
1

> <b_ppw_treated_metals>
1

> <s_ppw_het_states>
eJztlDFvgzAQhf+KxQzUvmcIkK1T16pjxYDSTE2hAx2qKP+92MZ5QIfOlWB6ebnzd76z7pqYpFGv01dqXadKt6mapNGUhlIoQWkpC8qS8kBZUZImpAlpQpqQJqQJaUKakCakCWkgDaSBNJAG0kAaSANpIA2kWU9zeu5wuJgJ/86G3RrV3XCTCC0UziP0PxoSDbM0XJHRgI8gxckwrWgU3liklBG7Mtx41sYi5eBTFqVX3qhZabicvkeI3hw6G9garEPMpoWCTQvFX849DuGLWPU0GHZRhy8MpMBjwQbBY8GuQ6IRI3wdYB2w8QxZGTUjis2gUMY6YoqvFCwdVTxD3KMqclsVU9L1lqpMux9FzW+KTV7Gbjyrz3PfXcbvxiXU6v3UXR4+hstRPWWPQ/+mTsNXPzYKR/XcKJ3417ovhKmli9nuG2HfCP9gI+hca23CRrC52wK/l4CL+WMJZCZp29sP7LW0QA==

> <b_ppw_created_disulfur>
1

> <r_i_Potential_Energy-OPLS3e>
-22930.6882311768

> <r_i_RMS_Derivative-OPLS3e>
0.0492371235651234

> <r_i_Max_Derivative-OPLS3e>
1.16542738597348

> <r_i_Stretch_Energy-OPLS3e>
28.3308907592131

> <r_i_Bend_Energy-OPLS3e>
679.48292643561

> <r_i_LJ-14_Energy-OPLS3e>
1097.76152072758

> <r_i_El-14_Energy-OPLS3e>
-723.777239532224

> <r_i_Van_der_Waals_Energy-OPLS3e>
-1836.78591290212

> <r_i_Electrostatic_Energy-OPLS3e>
-22281.3994367617

> <r_i_Dihedral_Energy-OPLS3e>
105.699020096872

> <r_i_target_temperature>
298

> <b_ppw_ran_impref>
1

> <s_m_source_file>
../3ho9_ligand.sdf

> <i_m_source_file_index>
1

> <s_epik_input>
W09IXVtDQEBIXTFbQ0gyXVtDQEhdKEMoW0NIMl0yKT1bQ0gyXSlbQ0gyXVtDQEhdKFtDQEBdMTIzKVtDQEBdKFtDSDNdKShDKD1PKVtDSF09W0NIXTMpW0NIMl1bQ0gyXUMoPU8pW05IXWMoYyhbT0hdKWM0Qyg9TylbTy1dKWMoW09IXSlbY0hdW2NIXTQ=

> <s_epik_cmdline>
J2VwaWtfYXBwJywgJy1pbWFlJywgJ2xpZ2FuZF9wcm8ubWFlJywgJy1vbWFlJywgJ2xpZ2FuZF9wcmVwLm1hZScsICctbXMnLCAnMScsICctcGgnLCAnNycsICctcGh0JywgJzAuNScsICctbnQn

> <r_lp_tautomer_probability>
1

> <r_epik_Ionization_Penalty>
  0.0030

> <r_epik_Ionization_Penalty_Charging>
  0.0001

> <r_epik_Ionization_Penalty_Neutral>
  0.0029

> <r_epik_State_Penalty>
 -0.0000

> <r_epik_Charging_Adjusted_Penalty>
0.000101043027067058

> <i_epik_Tot_Q>
-1

> <i_epik_Tot_abs_Q>
1

$$$$
