4ayp_ligand
                    3D
 Schrodinger Suite 2020-3.
 48 49  0  0  1  0            999 V2000
  -27.3730  -14.8440  -14.3440 O   0  0  0  0  0  0
  -27.6430  -13.5110  -13.9120 C   0  0  1  0  0  0
  -27.5580  -12.6200  -15.1350 C   0  0  1  0  0  0
  -28.3010  -13.2160  -16.2050 O   0  0  0  0  0  0
  -28.0890  -11.2290  -14.8100 C   0  0  2  0  0  0
  -27.2980  -10.6220  -13.7860 O   0  0  0  0  0  0
  -29.5510  -11.2920  -14.3450 C   0  0  1  0  0  0
  -30.4720  -10.9430  -15.5130 C   0  0  0  0  0  0
  -31.8530  -11.0800  -15.2030 O   0  0  0  0  0  0
  -29.9660  -12.6030  -13.9100 O   0  0  0  0  0  0
  -29.0200  -13.4110  -13.2050 C   0  0  2  0  0  0
  -28.7020  -12.9060  -11.4820 S   0  0  0  0  0  0
  -30.2590  -13.3220  -10.6560 C   0  0  2  0  0  0
  -30.3310  -12.5080   -9.3640 C   0  0  1  0  0  0
  -31.6460  -12.6030   -8.8510 O   0  0  0  0  0  0
  -31.8040  -11.8930   -7.6140 C   0  0  0  0  0  0
  -29.3740  -12.9780   -8.4150 O   0  0  0  0  0  0
  -30.4140  -14.8120  -10.3120 C   0  0  1  0  0  0
  -30.2340  -15.6000  -11.4880 O   0  0  0  0  0  0
  -29.4390  -15.2590   -9.2280 C   0  0  2  0  0  0
  -29.7360  -16.5900   -8.8100 O   0  0  0  0  0  0
  -29.5590  -14.3430   -8.0150 C   0  0  1  0  0  0
  -28.5190  -14.6210   -6.9550 C   0  0  0  0  0  0
  -28.7580  -13.7340   -5.8600 O   0  0  0  0  0  0
  -26.4311  -15.0736  -14.8636 H   0  0  0  0  0  0
  -26.8598  -13.2489  -13.1855 H   0  0  0  0  0  0
  -26.5226  -12.5469  -15.4992 H   0  0  0  0  0  0
  -28.0411  -14.2241  -16.5603 H   0  0  0  0  0  0
  -27.9825  -10.5848  -15.6953 H   0  0  0  0  0  0
  -26.2163  -10.4872  -13.9338 H   0  0  0  0  0  0
  -29.6432  -10.6341  -13.4683 H   0  0  0  0  0  0
  -30.3028   -9.8986  -15.8139 H   0  0  0  0  0  0
  -30.2562  -11.6086  -16.3617 H   0  0  0  0  0  0
  -32.6129  -10.8562  -15.9663 H   0  0  0  0  0  0
  -29.5846  -14.3254  -13.4395 H   0  0  0  0  0  0
  -31.1857  -13.1408  -11.2204 H   0  0  0  0  0  0
  -30.1092  -11.4387   -9.4958 H   0  0  0  0  0  0
  -32.8402  -11.9988   -7.2603 H   0  0  0  0  0  0
  -31.5771  -10.8282   -7.7709 H   0  0  0  0  0  0
  -31.1159  -12.3078   -6.8627 H   0  0  0  0  0  0
  -31.4404  -15.0118   -9.9704 H   0  0  0  0  0  0
  -30.8570  -15.4141  -12.3753 H   0  0  0  0  0  0
  -28.4154  -15.2825   -9.6302 H   0  0  0  0  0  0
  -29.7067  -17.4144   -9.5376 H   0  0  0  0  0  0
  -30.5694  -14.4715   -7.5996 H   0  0  0  0  0  0
  -28.6040  -15.6663   -6.6232 H   0  0  0  0  0  0
  -27.5156  -14.4490   -7.3717 H   0  0  0  0  0  0
  -28.1090  -13.7685   -4.9725 H   0  0  0  0  0  0
  1  2  1  0  0  0
  1 25  1  0  0  0
  2  3  1  0  0  0
  2 11  1  0  0  0
  2 26  1  0  0  0
  3  4  1  0  0  0
  3  5  1  0  0  0
  3 27  1  0  0  0
  4 28  1  0  0  0
  5  6  1  0  0  0
  5  7  1  0  0  0
  5 29  1  0  0  0
  6 30  1  0  0  0
  7  8  1  0  0  0
  7 10  1  0  0  0
  7 31  1  0  0  0
  8  9  1  0  0  0
  8 32  1  0  0  0
  8 33  1  0  0  0
  9 34  1  0  0  0
 10 11  1  0  0  0
 11 12  1  0  0  0
 11 35  1  0  0  0
 12 13  1  0  0  0
 13 14  1  0  0  0
 13 18  1  0  0  0
 13 36  1  0  0  0
 14 15  1  0  0  0
 14 17  1  0  0  0
 14 37  1  0  0  0
 15 16  1  0  0  0
 16 38  1  0  0  0
 16 39  1  0  0  0
 16 40  1  0  0  0
 17 22  1  0  0  0
 18 19  1  0  0  0
 18 20  1  0  0  0
 18 41  1  0  0  0
 19 42  1  0  0  0
 20 21  1  0  0  0
 20 22  1  0  0  0
 20 43  1  0  0  0
 21 44  1  0  0  0
 22 23  1  0  0  0
 22 45  1  0  0  0
 23 24  1  0  0  0
 23 46  1  0  0  0
 23 47  1  0  0  0
 24 48  1  0  0  0
M  END
> <i_m_stars>
0

> <s_m_entry_id>
36

> <s_m_entry_name>
Structure36

> <s_pdb_PDB_TITLE>
4ayp_protein

> <s_pdb_PDB_format_version>
3.0

> <s_m_Source_Path>
/disk1/aquila/PDBbind2020/fail/4ayp

> <s_m_Source_File>
4ayp_protein.pdb

> <i_m_Source_File_Index>
1

> <s_ppw_entry_id_backup>
34

> <b_ppw_prepared>
1

> <s_ppw_prepared_with_version>
2020-2

> <b_ppw_assigned_bond_orders>
1

> <b_ppw_added_hydrogens>
1

> <b_ppw_treated_metals>
1

> <b_ppw_created_disulfur>
1

> <s_ppw_het_states>
eJxdkbFugzAURX/liZm0fmBsIFumrlXHigGlmUohAx2qKP8eeG51CkxHB8G9vr5lmrXyvjwhNi4X1+WyooIFWIIerMAARrAGmz+snQMVLMAS9GAFBjCCNUiakqakKWlqaSv/LpFGUPZIU/wXdgZlprTQVniEN1HtRUAEE3EvGkQ0USOabQ/DtKgybtpVmTituxURUZrwexEQ3kSFWJvatMqNpMvYigZh1dXtBf9Qq65UV2uqVn0xB/e0fH275+JXyN7mfr7I9TL2w/zT2msnn+d+eP6ahqO8HE7T+CHn6XucWymO8tqKy7ru/gBBOaa3

> <r_i_Potential_Energy-OPLS3e>
-14444.9946090745

> <r_i_RMS_Derivative-OPLS3e>
0.0863395230959768

> <r_i_Max_Derivative-OPLS3e>
3.53710608455611

> <r_i_Stretch_Energy-OPLS3e>
9.11195564934012

> <r_i_Bend_Energy-OPLS3e>
264.147698315465

> <r_i_LJ-14_Energy-OPLS3e>
596.020407458216

> <r_i_El-14_Energy-OPLS3e>
-648.637706070191

> <r_i_Van_der_Waals_Energy-OPLS3e>
-1232.27444613151

> <r_i_Electrostatic_Energy-OPLS3e>
-13369.377145605

> <r_i_Dihedral_Energy-OPLS3e>
-63.9853726908949

> <r_i_target_temperature>
298

> <b_ppw_ran_impref>
1

> <i_pdb_PDB_Model>
1

> <s_m_source_file>
../4ayp_ligand.sdf

> <i_m_source_file_index>
1

> <s_epik_input>
W09IXVtDQEhdMVtDQEBIXShbT0hdKVtDQEhdKFtPSF0pW0NAQEhdKFtDSDJdW09IXSlPW0NAQEhdMVNbQ0BASF0yW0NAQEhdKE9bQ0gzXSlPW0NASF0oW0NIMl1bT0hdKVtDQEBIXShbT0hdKVtDQEBIXTJbT0hd

> <s_epik_cmdline>
J2VwaWtfYXBwJywgJy1pbWFlJywgJ2xpZ2FuZF9wcm8ubWFlJywgJy1vbWFlJywgJ2xpZ2FuZF9wcmVwLm1hZScsICctbXMnLCAnMScsICctcGgnLCAnNycsICctcGh0JywgJzAuNScsICctbnQn

> <r_lp_tautomer_probability>
1

> <r_epik_Ionization_Penalty>
  0.0000

> <r_epik_Ionization_Penalty_Charging>
  0.0000

> <r_epik_Ionization_Penalty_Neutral>
  0.0000

> <r_epik_State_Penalty>
 -0.0000

> <r_epik_Charging_Adjusted_Penalty>
0

> <i_epik_Tot_Q>
0

> <i_epik_Tot_abs_Q>
0

> <s_epik_Chemistry_Notes>
This compound contains an acetal/aminal-like group ( X-CH(R)-Y where X, Y are N, S, or O) that may be acid/base labile, releasing an aldehyde.

$$$$
